Material: diel_mie / Ag_RakicLDHD
Optical constants. A. D. RakiÄ‡, A. B. DjuriÅ¡ic, J. M. Elazar, M. L. Majewski. Optical properties of metallic films for vertical-cavity optoelectronic devices. Appl. Opt. 37, 5271-5283 (1998)
Comments: Fit of experimental data from several sources to Lorentz-Drude (LD) model
wavelength (um)	n	k
270.0	1.147747e+00	1.824630e+00
273.0	1.348029e+00	1.797511e+00
276.0	1.536031e+00	1.698814e+00
279.0	1.675766e+00	1.539456e+00
282.0	1.746583e+00	1.351678e+00
285.0	1.752474e+00	1.169199e+00
288.0	1.711561e+00	1.011740e+00
291.0	1.642498e+00	8.848647e-01
294.0	1.558634e+00	7.864750e-01
297.0	1.467958e+00	7.120110e-01
300.0	1.374745e+00	6.569508e-01
303.0	1.281065e+00	6.176507e-01
306.0	1.187786e+00	5.914752e-01
309.0	1.095197e+00	5.766999e-01
312.0	1.003395e+00	5.723724e-01
315.0	9.125763e-01	5.781701e-01
318.0	8.233072e-01	5.942232e-01
321.0	7.367649e-01	6.208163e-01
324.0	6.548287e-01	6.578987e-01
327.0	5.797825e-01	7.045150e-01
330.0	5.135698e-01	7.585687e-01
333.0	4.570585e-01	8.172641e-01
336.0	4.099008e-01	8.779240e-01
339.0	3.709619e-01	9.385503e-01
342.0	3.388491e-01	9.979145e-01
345.0	3.122460e-01	1.055385e+00
348.0	2.900426e-01	1.110710e+00
351.0	2.713521e-01	1.163856e+00
354.0	2.554814e-01	1.214903e+00
357.0	2.418923e-01	1.263981e+00
360.0	2.301667e-01	1.311240e+00
363.0	2.199770e-01	1.356833e+00
366.0	2.110652e-01	1.400904e+00
369.0	2.032257e-01	1.443586e+00
372.0	1.962932e-01	1.485003e+00
375.0	1.901341e-01	1.525264e+00
378.0	1.846387e-01	1.564467e+00
381.0	1.797169e-01	1.602701e+00
384.0	1.752937e-01	1.640045e+00
387.0	1.713062e-01	1.676570e+00
390.0	1.677016e-01	1.712338e+00
393.0	1.644351e-01	1.747407e+00
396.0	1.614685e-01	1.781828e+00
399.0	1.587689e-01	1.815648e+00
402.0	1.563080e-01	1.848907e+00
405.0	1.540614e-01	1.881645e+00
408.0	1.520077e-01	1.913894e+00
411.0	1.501283e-01	1.945687e+00
414.0	1.484069e-01	1.977051e+00
417.0	1.468290e-01	2.008013e+00
420.0	1.453820e-01	2.038597e+00
423.0	1.440545e-01	2.068825e+00
426.0	1.428365e-01	2.098716e+00
429.0	1.417190e-01	2.128289e+00
432.0	1.406939e-01	2.157562e+00
435.0	1.397542e-01	2.186549e+00
438.0	1.388933e-01	2.215267e+00
441.0	1.381053e-01	2.243728e+00
444.0	1.373850e-01	2.271945e+00
447.0	1.367275e-01	2.299930e+00
450.0	1.361286e-01	2.327693e+00
453.0	1.355841e-01	2.355245e+00
456.0	1.350906e-01	2.382596e+00
459.0	1.346448e-01	2.409755e+00
462.0	1.342435e-01	2.436729e+00
465.0	1.338840e-01	2.463528e+00
468.0	1.335638e-01	2.490157e+00
471.0	1.332806e-01	2.516624e+00
474.0	1.330321e-01	2.542937e+00
477.0	1.328164e-01	2.569100e+00
480.0	1.326316e-01	2.595120e+00
483.0	1.324761e-01	2.621002e+00
486.0	1.323482e-01	2.646751e+00
489.0	1.322465e-01	2.672373e+00
492.0	1.321696e-01	2.697872e+00
495.0	1.321163e-01	2.723252e+00
498.0	1.320853e-01	2.748518e+00
501.0	1.320757e-01	2.773674e+00
504.0	1.320863e-01	2.798723e+00
507.0	1.321162e-01	2.823669e+00
510.0	1.321645e-01	2.848516e+00
513.0	1.322303e-01	2.873267e+00
516.0	1.323130e-01	2.897924e+00
519.0	1.324117e-01	2.922491e+00
522.0	1.325257e-01	2.946972e+00
525.0	1.326545e-01	2.971367e+00
528.0	1.327973e-01	2.995681e+00
531.0	1.329537e-01	3.019915e+00
534.0	1.331230e-01	3.044072e+00
537.0	1.333049e-01	3.068154e+00
540.0	1.334987e-01	3.092163e+00
543.0	1.337040e-01	3.116102e+00
546.0	1.339205e-01	3.139973e+00
549.0	1.341476e-01	3.163776e+00
552.0	1.343851e-01	3.187515e+00
555.0	1.346326e-01	3.211191e+00
558.0	1.348896e-01	3.234806e+00
561.0	1.351560e-01	3.258361e+00
564.0	1.354313e-01	3.281859e+00
567.0	1.357154e-01	3.305299e+00
570.0	1.360078e-01	3.328685e+00
573.0	1.363084e-01	3.352017e+00
576.0	1.366169e-01	3.375296e+00
579.0	1.369331e-01	3.398525e+00
582.0	1.372568e-01	3.421704e+00
585.0	1.375876e-01	3.444834e+00
588.0	1.379255e-01	3.467917e+00
591.0	1.382703e-01	3.490954e+00
594.0	1.386216e-01	3.513946e+00
597.0	1.389795e-01	3.536894e+00
600.0	1.393436e-01	3.559799e+00
603.0	1.397139e-01	3.582662e+00
606.0	1.400902e-01	3.605484e+00
609.0	1.404723e-01	3.628266e+00
612.0	1.408601e-01	3.651008e+00
615.0	1.412535e-01	3.673713e+00
618.0	1.416523e-01	3.696380e+00
621.0	1.420564e-01	3.719010e+00
624.0	1.424658e-01	3.741604e+00
627.0	1.428802e-01	3.764164e+00
630.0	1.432997e-01	3.786689e+00
633.0	1.437240e-01	3.809180e+00
636.0	1.441531e-01	3.831639e+00
639.0	1.445869e-01	3.854065e+00
642.0	1.450252e-01	3.876460e+00
645.0	1.454682e-01	3.898823e+00
648.0	1.459155e-01	3.921157e+00
651.0	1.463672e-01	3.943461e+00
654.0	1.468232e-01	3.965736e+00
657.0	1.472834e-01	3.987982e+00
660.0	1.477477e-01	4.010200e+00
663.0	1.482161e-01	4.032391e+00
666.0	1.486885e-01	4.054555e+00
669.0	1.491648e-01	4.076693e+00
672.0	1.496450e-01	4.098804e+00
675.0	1.501291e-01	4.120891e+00
678.0	1.506169e-01	4.142952e+00
681.0	1.511084e-01	4.164989e+00
684.0	1.516036e-01	4.187002e+00
687.0	1.521025e-01	4.208992e+00
690.0	1.526049e-01	4.230958e+00
693.0	1.531108e-01	4.252902e+00
696.0	1.536202e-01	4.274823e+00
699.0	1.541331e-01	4.296723e+00
702.0	1.546493e-01	4.318600e+00
705.0	1.551690e-01	4.340457e+00
708.0	1.556919e-01	4.362293e+00
711.0	1.562181e-01	4.384109e+00
714.0	1.567476e-01	4.405904e+00
717.0	1.572803e-01	4.427680e+00
720.0	1.578162e-01	4.449436e+00
723.0	1.583553e-01	4.471173e+00
726.0	1.588975e-01	4.492892e+00
729.0	1.594428e-01	4.514592e+00
732.0	1.599911e-01	4.536274e+00
735.0	1.605426e-01	4.557938e+00
738.0	1.610970e-01	4.579584e+00
741.0	1.616544e-01	4.601214e+00
744.0	1.622148e-01	4.622826e+00
747.0	1.627781e-01	4.644421e+00
750.0	1.633444e-01	4.666000e+00
753.0	1.639135e-01	4.687563e+00
756.0	1.644856e-01	4.709110e+00
759.0	1.650605e-01	4.730641e+00
762.0	1.656382e-01	4.752157e+00
765.0	1.662188e-01	4.773658e+00
768.0	1.668021e-01	4.795143e+00
771.0	1.673883e-01	4.816614e+00
774.0	1.679772e-01	4.838070e+00
777.0	1.685689e-01	4.859512e+00
780.0	1.691633e-01	4.880940e+00
783.0	1.697604e-01	4.902354e+00
786.0	1.703603e-01	4.923754e+00
789.0	1.709628e-01	4.945140e+00
792.0	1.715680e-01	4.966514e+00
795.0	1.721759e-01	4.987874e+00
798.0	1.727864e-01	5.009221e+00
801.0	1.733996e-01	5.030556e+00
804.0	1.740154e-01	5.051878e+00
807.0	1.746338e-01	5.073188e+00
810.0	1.752548e-01	5.094485e+00
813.0	1.758784e-01	5.115770e+00
816.0	1.765046e-01	5.137044e+00
819.0	1.771333e-01	5.158306e+00
822.0	1.777646e-01	5.179556e+00
825.0	1.783985e-01	5.200795e+00
828.0	1.790349e-01	5.222022e+00
831.0	1.796739e-01	5.243239e+00
834.0	1.803153e-01	5.264445e+00
837.0	1.809593e-01	5.285639e+00
840.0	1.816058e-01	5.306824e+00
843.0	1.822548e-01	5.327997e+00
846.0	1.829063e-01	5.349161e+00
849.0	1.835602e-01	5.370314e+00
852.0	1.842167e-01	5.391457e+00
855.0	1.848756e-01	5.412590e+00
858.0	1.855370e-01	5.433713e+00
861.0	1.862008e-01	5.454826e+00
864.0	1.868671e-01	5.475930e+00
867.0	1.875358e-01	5.497024e+00
870.0	1.882070e-01	5.518109e+00
873.0	1.888806e-01	5.539185e+00
876.0	1.895566e-01	5.560252e+00
879.0	1.902350e-01	5.581309e+00
882.0	1.909159e-01	5.602358e+00
885.0	1.915991e-01	5.623398e+00
888.0	1.922848e-01	5.644429e+00
891.0	1.929729e-01	5.665452e+00
894.0	1.936634e-01	5.686466e+00
897.0	1.943562e-01	5.707472e+00
900.0	1.950515e-01	5.728470e+00
903.0	1.957491e-01	5.749459e+00
906.0	1.964491e-01	5.770441e+00
909.0	1.971515e-01	5.791414e+00
912.0	1.978562e-01	5.812379e+00
915.0	1.985634e-01	5.833337e+00
918.0	1.992728e-01	5.854287e+00
921.0	1.999847e-01	5.875229e+00
924.0	2.006989e-01	5.896164e+00
927.0	2.014154e-01	5.917092e+00
930.0	2.021343e-01	5.938012e+00
933.0	2.028556e-01	5.958924e+00
936.0	2.035792e-01	5.979830e+00
939.0	2.043051e-01	6.000728e+00
942.0	2.050334e-01	6.021620e+00
945.0	2.057640e-01	6.042504e+00
948.0	2.064969e-01	6.063382e+00
951.0	2.072322e-01	6.084253e+00
954.0	2.079698e-01	6.105117e+00
957.0	2.087097e-01	6.125974e+00
960.0	2.094519e-01	6.146825e+00
963.0	2.101965e-01	6.167669e+00
966.0	2.109434e-01	6.188507e+00
969.0	2.116926e-01	6.209339e+00
972.0	2.124441e-01	6.230164e+00
975.0	2.131979e-01	6.250983e+00
978.0	2.139540e-01	6.271796e+00
981.0	2.147125e-01	6.292602e+00
984.0	2.154732e-01	6.313403e+00
987.0	2.162363e-01	6.334198e+00
990.0	2.170016e-01	6.354986e+00
993.0	2.177693e-01	6.375769e+00
996.0	2.185392e-01	6.396546e+00
999.0	2.193114e-01	6.417318e+00
1002.0	2.200860e-01	6.438083e+00
1005.0	2.208628e-01	6.458843e+00
1008.0	2.216419e-01	6.479598e+00
1011.0	2.224234e-01	6.500347e+00
1014.0	2.232071e-01	6.521091e+00
1017.0	2.239931e-01	6.541829e+00
1020.0	2.247813e-01	6.562561e+00
1023.0	2.255719e-01	6.583289e+00
1026.0	2.263648e-01	6.604011e+00
1029.0	2.271599e-01	6.624728e+00
1032.0	2.279573e-01	6.645440e+00
1035.0	2.287570e-01	6.666147e+00
1038.0	2.295590e-01	6.686849e+00
1041.0	2.303633e-01	6.707546e+00
1044.0	2.311698e-01	6.728238e+00
1047.0	2.319786e-01	6.748925e+00
1050.0	2.327897e-01	6.769607e+00
1053.0	2.336031e-01	6.790284e+00
1056.0	2.344187e-01	6.810957e+00
1059.0	2.352366e-01	6.831624e+00
1062.0	2.360568e-01	6.852288e+00
1065.0	2.368793e-01	6.872946e+00
1068.0	2.377040e-01	6.893600e+00
1071.0	2.385310e-01	6.914249e+00
1074.0	2.393603e-01	6.934894e+00
1077.0	2.401919e-01	6.955535e+00
1080.0	2.410257e-01	6.976171e+00
1083.0	2.418617e-01	6.996803e+00
1086.0	2.427001e-01	7.017430e+00
1089.0	2.435407e-01	7.038053e+00
1092.0	2.443836e-01	7.058672e+00
1095.0	2.452287e-01	7.079286e+00
1098.0	2.460761e-01	7.099897e+00
1101.0	2.469258e-01	7.120503e+00
1104.0	2.477777e-01	7.141105e+00
1107.0	2.486319e-01	7.161703e+00
1110.0	2.494884e-01	7.182297e+00
1113.0	2.503471e-01	7.202887e+00
1116.0	2.512081e-01	7.223473e+00
1119.0	2.520714e-01	7.244055e+00
1122.0	2.529369e-01	7.264633e+00
1125.0	2.538047e-01	7.285207e+00
1128.0	2.546747e-01	7.305778e+00
1131.0	2.555470e-01	7.326344e+00
1134.0	2.564215e-01	7.346907e+00
1137.0	2.572983e-01	7.367466e+00
1140.0	2.581774e-01	7.388022e+00
1143.0	2.590587e-01	7.408573e+00
1146.0	2.599423e-01	7.429121e+00
1149.0	2.608282e-01	7.449666e+00
1152.0	2.617163e-01	7.470207e+00
1155.0	2.626066e-01	7.490744e+00
1158.0	2.634992e-01	7.511278e+00
1161.0	2.643941e-01	7.531808e+00
1164.0	2.652912e-01	7.552335e+00
1167.0	2.661906e-01	7.572858e+00
1170.0	2.670923e-01	7.593378e+00
1173.0	2.679961e-01	7.613895e+00
1176.0	2.689023e-01	7.634408e+00
1179.0	2.698107e-01	7.654918e+00
1182.0	2.707214e-01	7.675424e+00
1185.0	2.716343e-01	7.695928e+00
1188.0	2.725495e-01	7.716428e+00
1191.0	2.734669e-01	7.736924e+00
1194.0	2.743866e-01	7.757418e+00
1197.0	2.753085e-01	7.777908e+00
1200.0	2.762327e-01	7.798395e+00
