Material: diel_mie / Ag_refractive_index
Optical constants. A. D. RakiÄ‡, A. B. DjuriÅ¡ic, J. M. Elazar, M. L. Majewski. Optical properties of metallic films for vertical-cavity optoelectronic devices. Appl. Opt. 37, 5271-5283 (1998)
Comments: Fit of experimental data from several sources to Lorentz-Drude (LD) model
wavelength (um)	n	k
0.270	1.147747e+00	1.824630e+00
0.273	1.348029e+00	1.797511e+00
0.276	1.536031e+00	1.698814e+00
0.279	1.675766e+00	1.539456e+00
0.282	1.746583e+00	1.351678e+00
0.285	1.752474e+00	1.169199e+00
0.288	1.711561e+00	1.011740e+00
0.291	1.642498e+00	8.848647e-01
0.294	1.558634e+00	7.864750e-01
0.297	1.467958e+00	7.120110e-01
0.300	1.374745e+00	6.569508e-01
0.303	1.281065e+00	6.176507e-01
0.306	1.187786e+00	5.914752e-01
0.309	1.095197e+00	5.766999e-01
0.312	1.003395e+00	5.723724e-01
0.315	9.125763e-01	5.781701e-01
0.318	8.233072e-01	5.942232e-01
0.321	7.367649e-01	6.208163e-01
0.324	6.548287e-01	6.578987e-01
0.327	5.797825e-01	7.045150e-01
0.330	5.135698e-01	7.585687e-01
0.333	4.570585e-01	8.172641e-01
0.336	4.099008e-01	8.779240e-01
0.339	3.709619e-01	9.385503e-01
0.342	3.388491e-01	9.979145e-01
0.345	3.122460e-01	1.055385e+00
0.348	2.900426e-01	1.110710e+00
0.351	2.713521e-01	1.163856e+00
0.354	2.554814e-01	1.214903e+00
0.357	2.418923e-01	1.263981e+00
0.360	2.301667e-01	1.311240e+00
0.363	2.199770e-01	1.356833e+00
0.366	2.110652e-01	1.400904e+00
0.369	2.032257e-01	1.443586e+00
0.372	1.962932e-01	1.485003e+00
0.375	1.901341e-01	1.525264e+00
0.378	1.846387e-01	1.564467e+00
0.381	1.797169e-01	1.602701e+00
0.384	1.752937e-01	1.640045e+00
0.387	1.713062e-01	1.676570e+00
0.390	1.677016e-01	1.712338e+00
0.393	1.644351e-01	1.747407e+00
0.396	1.614685e-01	1.781828e+00
0.399	1.587689e-01	1.815648e+00
0.402	1.563080e-01	1.848907e+00
0.405	1.540614e-01	1.881645e+00
0.408	1.520077e-01	1.913894e+00
0.411	1.501283e-01	1.945687e+00
0.414	1.484069e-01	1.977051e+00
0.417	1.468290e-01	2.008013e+00
0.420	1.453820e-01	2.038597e+00
0.423	1.440545e-01	2.068825e+00
0.426	1.428365e-01	2.098716e+00
0.429	1.417190e-01	2.128289e+00
0.432	1.406939e-01	2.157562e+00
0.435	1.397542e-01	2.186549e+00
0.438	1.388933e-01	2.215267e+00
0.441	1.381053e-01	2.243728e+00
0.444	1.373850e-01	2.271945e+00
0.447	1.367275e-01	2.299930e+00
0.450	1.361286e-01	2.327693e+00
0.453	1.355841e-01	2.355245e+00
0.456	1.350906e-01	2.382596e+00
0.459	1.346448e-01	2.409755e+00
0.462	1.342435e-01	2.436729e+00
0.465	1.338840e-01	2.463528e+00
0.468	1.335638e-01	2.490157e+00
0.471	1.332806e-01	2.516624e+00
0.474	1.330321e-01	2.542937e+00
0.477	1.328164e-01	2.569100e+00
0.480	1.326316e-01	2.595120e+00
0.483	1.324761e-01	2.621002e+00
0.486	1.323482e-01	2.646751e+00
0.489	1.322465e-01	2.672373e+00
0.492	1.321696e-01	2.697872e+00
0.495	1.321163e-01	2.723252e+00
0.498	1.320853e-01	2.748518e+00
0.501	1.320757e-01	2.773674e+00
0.504	1.320863e-01	2.798723e+00
0.507	1.321162e-01	2.823669e+00
0.510	1.321645e-01	2.848516e+00
0.513	1.322303e-01	2.873267e+00
0.516	1.323130e-01	2.897924e+00
0.519	1.324117e-01	2.922491e+00
0.522	1.325257e-01	2.946972e+00
0.525	1.326545e-01	2.971367e+00
0.528	1.327973e-01	2.995681e+00
0.531	1.329537e-01	3.019915e+00
0.534	1.331230e-01	3.044072e+00
0.537	1.333049e-01	3.068154e+00
0.540	1.334987e-01	3.092163e+00
0.543	1.337040e-01	3.116102e+00
0.546	1.339205e-01	3.139973e+00
0.549	1.341476e-01	3.163776e+00
0.552	1.343851e-01	3.187515e+00
0.555	1.346326e-01	3.211191e+00
0.558	1.348896e-01	3.234806e+00
0.561	1.351560e-01	3.258361e+00
0.564	1.354313e-01	3.281859e+00
0.567	1.357154e-01	3.305299e+00
0.570	1.360078e-01	3.328685e+00
0.573	1.363084e-01	3.352017e+00
0.576	1.366169e-01	3.375296e+00
0.579	1.369331e-01	3.398525e+00
0.582	1.372568e-01	3.421704e+00
0.585	1.375876e-01	3.444834e+00
0.588	1.379255e-01	3.467917e+00
0.591	1.382703e-01	3.490954e+00
0.594	1.386216e-01	3.513946e+00
0.597	1.389795e-01	3.536894e+00
0.600	1.393436e-01	3.559799e+00
0.603	1.397139e-01	3.582662e+00
0.606	1.400902e-01	3.605484e+00
0.609	1.404723e-01	3.628266e+00
0.612	1.408601e-01	3.651008e+00
0.615	1.412535e-01	3.673713e+00
0.618	1.416523e-01	3.696380e+00
0.621	1.420564e-01	3.719010e+00
0.624	1.424658e-01	3.741604e+00
0.627	1.428802e-01	3.764164e+00
0.630	1.432997e-01	3.786689e+00
0.633	1.437240e-01	3.809180e+00
0.636	1.441531e-01	3.831639e+00
0.639	1.445869e-01	3.854065e+00
0.642	1.450252e-01	3.876460e+00
0.645	1.454682e-01	3.898823e+00
0.648	1.459155e-01	3.921157e+00
0.651	1.463672e-01	3.943461e+00
0.654	1.468232e-01	3.965736e+00
0.657	1.472834e-01	3.987982e+00
0.660	1.477477e-01	4.010200e+00
0.663	1.482161e-01	4.032391e+00
0.666	1.486885e-01	4.054555e+00
0.669	1.491648e-01	4.076693e+00
0.672	1.496450e-01	4.098804e+00
0.675	1.501291e-01	4.120891e+00
0.678	1.506169e-01	4.142952e+00
0.681	1.511084e-01	4.164989e+00
0.684	1.516036e-01	4.187002e+00
0.687	1.521025e-01	4.208992e+00
0.690	1.526049e-01	4.230958e+00
0.693	1.531108e-01	4.252902e+00
0.696	1.536202e-01	4.274823e+00
0.699	1.541331e-01	4.296723e+00
0.702	1.546493e-01	4.318600e+00
0.705	1.551690e-01	4.340457e+00
0.708	1.556919e-01	4.362293e+00
0.711	1.562181e-01	4.384109e+00
0.714	1.567476e-01	4.405904e+00
0.717	1.572803e-01	4.427680e+00
0.720	1.578162e-01	4.449436e+00
0.723	1.583553e-01	4.471173e+00
0.726	1.588975e-01	4.492892e+00
0.729	1.594428e-01	4.514592e+00
0.732	1.599911e-01	4.536274e+00
0.735	1.605426e-01	4.557938e+00
0.738	1.610970e-01	4.579584e+00
0.741	1.616544e-01	4.601214e+00
0.744	1.622148e-01	4.622826e+00
0.747	1.627781e-01	4.644421e+00
0.750	1.633444e-01	4.666000e+00
0.753	1.639135e-01	4.687563e+00
0.756	1.644856e-01	4.709110e+00
0.759	1.650605e-01	4.730641e+00
0.762	1.656382e-01	4.752157e+00
0.765	1.662188e-01	4.773658e+00
0.768	1.668021e-01	4.795143e+00
0.771	1.673883e-01	4.816614e+00
0.774	1.679772e-01	4.838070e+00
0.777	1.685689e-01	4.859512e+00
0.780	1.691633e-01	4.880940e+00
0.783	1.697604e-01	4.902354e+00
0.786	1.703603e-01	4.923754e+00
0.789	1.709628e-01	4.945140e+00
0.792	1.715680e-01	4.966514e+00
0.795	1.721759e-01	4.987874e+00
0.798	1.727864e-01	5.009221e+00
0.801	1.733996e-01	5.030556e+00
0.804	1.740154e-01	5.051878e+00
0.807	1.746338e-01	5.073188e+00
0.810	1.752548e-01	5.094485e+00
0.813	1.758784e-01	5.115770e+00
0.816	1.765046e-01	5.137044e+00
0.819	1.771333e-01	5.158306e+00
0.822	1.777646e-01	5.179556e+00
0.825	1.783985e-01	5.200795e+00
0.828	1.790349e-01	5.222022e+00
0.831	1.796739e-01	5.243239e+00
0.834	1.803153e-01	5.264445e+00
0.837	1.809593e-01	5.285639e+00
0.840	1.816058e-01	5.306824e+00
0.843	1.822548e-01	5.327997e+00
0.846	1.829063e-01	5.349161e+00
0.849	1.835602e-01	5.370314e+00
0.852	1.842167e-01	5.391457e+00
0.855	1.848756e-01	5.412590e+00
0.858	1.855370e-01	5.433713e+00
0.861	1.862008e-01	5.454826e+00
0.864	1.868671e-01	5.475930e+00
0.867	1.875358e-01	5.497024e+00
0.870	1.882070e-01	5.518109e+00
0.873	1.888806e-01	5.539185e+00
0.876	1.895566e-01	5.560252e+00
0.879	1.902350e-01	5.581309e+00
0.882	1.909159e-01	5.602358e+00
0.885	1.915991e-01	5.623398e+00
0.888	1.922848e-01	5.644429e+00
0.891	1.929729e-01	5.665452e+00
0.894	1.936634e-01	5.686466e+00
0.897	1.943562e-01	5.707472e+00
0.900	1.950515e-01	5.728470e+00
0.903	1.957491e-01	5.749459e+00
0.906	1.964491e-01	5.770441e+00
0.909	1.971515e-01	5.791414e+00
0.912	1.978562e-01	5.812379e+00
0.915	1.985634e-01	5.833337e+00
0.918	1.992728e-01	5.854287e+00
0.921	1.999847e-01	5.875229e+00
0.924	2.006989e-01	5.896164e+00
0.927	2.014154e-01	5.917092e+00
0.930	2.021343e-01	5.938012e+00
0.933	2.028556e-01	5.958924e+00
0.936	2.035792e-01	5.979830e+00
0.939	2.043051e-01	6.000728e+00
0.942	2.050334e-01	6.021620e+00
0.945	2.057640e-01	6.042504e+00
0.948	2.064969e-01	6.063382e+00
0.951	2.072322e-01	6.084253e+00
0.954	2.079698e-01	6.105117e+00
0.957	2.087097e-01	6.125974e+00
0.960	2.094519e-01	6.146825e+00
0.963	2.101965e-01	6.167669e+00
0.966	2.109434e-01	6.188507e+00
0.969	2.116926e-01	6.209339e+00
0.972	2.124441e-01	6.230164e+00
0.975	2.131979e-01	6.250983e+00
0.978	2.139540e-01	6.271796e+00
0.981	2.147125e-01	6.292602e+00
0.984	2.154732e-01	6.313403e+00
0.987	2.162363e-01	6.334198e+00
0.990	2.170016e-01	6.354986e+00
0.993	2.177693e-01	6.375769e+00
0.996	2.185392e-01	6.396546e+00
0.999	2.193114e-01	6.417318e+00
1.002	2.200860e-01	6.438083e+00
1.005	2.208628e-01	6.458843e+00
1.008	2.216419e-01	6.479598e+00
1.011	2.224234e-01	6.500347e+00
1.014	2.232071e-01	6.521091e+00
1.017	2.239931e-01	6.541829e+00
1.020	2.247813e-01	6.562561e+00
1.023	2.255719e-01	6.583289e+00
1.026	2.263648e-01	6.604011e+00
1.029	2.271599e-01	6.624728e+00
1.032	2.279573e-01	6.645440e+00
1.035	2.287570e-01	6.666147e+00
1.038	2.295590e-01	6.686849e+00
1.041	2.303633e-01	6.707546e+00
1.044	2.311698e-01	6.728238e+00
1.047	2.319786e-01	6.748925e+00
1.050	2.327897e-01	6.769607e+00
1.053	2.336031e-01	6.790284e+00
1.056	2.344187e-01	6.810957e+00
1.059	2.352366e-01	6.831624e+00
1.062	2.360568e-01	6.852288e+00
1.065	2.368793e-01	6.872946e+00
1.068	2.377040e-01	6.893600e+00
1.071	2.385310e-01	6.914249e+00
1.074	2.393603e-01	6.934894e+00
1.077	2.401919e-01	6.955535e+00
1.080	2.410257e-01	6.976171e+00
1.083	2.418617e-01	6.996803e+00
1.086	2.427001e-01	7.017430e+00
1.089	2.435407e-01	7.038053e+00
1.092	2.443836e-01	7.058672e+00
1.095	2.452287e-01	7.079286e+00
1.098	2.460761e-01	7.099897e+00
1.101	2.469258e-01	7.120503e+00
1.104	2.477777e-01	7.141105e+00
1.107	2.486319e-01	7.161703e+00
1.110	2.494884e-01	7.182297e+00
1.113	2.503471e-01	7.202887e+00
1.116	2.512081e-01	7.223473e+00
1.119	2.520714e-01	7.244055e+00
1.122	2.529369e-01	7.264633e+00
1.125	2.538047e-01	7.285207e+00
1.128	2.546747e-01	7.305778e+00
1.131	2.555470e-01	7.326344e+00
1.134	2.564215e-01	7.346907e+00
1.137	2.572983e-01	7.367466e+00
1.140	2.581774e-01	7.388022e+00
1.143	2.590587e-01	7.408573e+00
1.146	2.599423e-01	7.429121e+00
1.149	2.608282e-01	7.449666e+00
1.152	2.617163e-01	7.470207e+00
1.155	2.626066e-01	7.490744e+00
1.158	2.634992e-01	7.511278e+00
1.161	2.643941e-01	7.531808e+00
1.164	2.652912e-01	7.552335e+00
1.167	2.661906e-01	7.572858e+00
1.170	2.670923e-01	7.593378e+00
1.173	2.679961e-01	7.613895e+00
1.176	2.689023e-01	7.634408e+00
1.179	2.698107e-01	7.654918e+00
1.182	2.707214e-01	7.675424e+00
1.185	2.716343e-01	7.695928e+00
1.188	2.725495e-01	7.716428e+00
1.191	2.734669e-01	7.736924e+00
1.194	2.743866e-01	7.757418e+00
1.197	2.753085e-01	7.777908e+00
1.200	2.762327e-01	7.798395e+00
