Material: diel_mie / Au_refractive_index
Optical constants. A. D. RakiÄ‡, A. B. DjuriÅ¡ic, J. M. Elazar, M. L. Majewski. Optical properties of metallic films for vertical-cavity optoelectronic devices. Appl. Opt. 37, 5271-5283 (1998)
Comments: Fit of experimental data from several sources to Lorentz-Drude (LD) model
wavelength (um)	n	k
0.270	1.306302e+00	1.685155e+00
0.273	1.334116e+00	1.693196e+00
0.276	1.360965e+00	1.698878e+00
0.279	1.386642e+00	1.702328e+00
0.282	1.410957e+00	1.703693e+00
0.285	1.433739e+00	1.703142e+00
0.288	1.454836e+00	1.700861e+00
0.291	1.474119e+00	1.697047e+00
0.294	1.491486e+00	1.691912e+00
0.297	1.506859e+00	1.685671e+00
0.300	1.520185e+00	1.678545e+00
0.303	1.531437e+00	1.670754e+00
0.306	1.540613e+00	1.662515e+00
0.309	1.547733e+00	1.654041e+00
0.312	1.552839e+00	1.645534e+00
0.315	1.555995e+00	1.637189e+00
0.318	1.557280e+00	1.629187e+00
0.321	1.556791e+00	1.621699e+00
0.324	1.554639e+00	1.614880e+00
0.327	1.550950e+00	1.608871e+00
0.330	1.545860e+00	1.603797e+00
0.333	1.539517e+00	1.599771e+00
0.336	1.532077e+00	1.596884e+00
0.339	1.523707e+00	1.595213e+00
0.342	1.514578e+00	1.594818e+00
0.345	1.504871e+00	1.595737e+00
0.348	1.494768e+00	1.597990e+00
0.351	1.484458e+00	1.601574e+00
0.354	1.474129e+00	1.606463e+00
0.357	1.463968e+00	1.612607e+00
0.360	1.454160e+00	1.619930e+00
0.363	1.444881e+00	1.628331e+00
0.366	1.436295e+00	1.637680e+00
0.369	1.428551e+00	1.647819e+00
0.372	1.421777e+00	1.658567e+00
0.375	1.416075e+00	1.669715e+00
0.378	1.411514e+00	1.681036e+00
0.381	1.408126e+00	1.692285e+00
0.384	1.405904e+00	1.703204e+00
0.387	1.404792e+00	1.713534e+00
0.390	1.404689e+00	1.723019e+00
0.393	1.405443e+00	1.731417e+00
0.396	1.406855e+00	1.738512e+00
0.399	1.408682e+00	1.744119e+00
0.402	1.410645e+00	1.748102e+00
0.405	1.412435e+00	1.750376e+00
0.408	1.413727e+00	1.750913e+00
0.411	1.414192e+00	1.749752e+00
0.414	1.413510e+00	1.746992e+00
0.417	1.411385e+00	1.742791e+00
0.420	1.407556e+00	1.737361e+00
0.423	1.401806e+00	1.730957e+00
0.426	1.393970e+00	1.723865e+00
0.429	1.383940e+00	1.716390e+00
0.432	1.371664e+00	1.708847e+00
0.435	1.357142e+00	1.701545e+00
0.438	1.340426e+00	1.694779e+00
0.441	1.321609e+00	1.688824e+00
0.444	1.300822e+00	1.683929e+00
0.447	1.278225e+00	1.680309e+00
0.450	1.254001e+00	1.678150e+00
0.453	1.228347e+00	1.677601e+00
0.456	1.201472e+00	1.678781e+00
0.459	1.173587e+00	1.681774e+00
0.462	1.144905e+00	1.686635e+00
0.465	1.115635e+00	1.693392e+00
0.468	1.085979e+00	1.702045e+00
0.471	1.056130e+00	1.712570e+00
0.474	1.026268e+00	1.724924e+00
0.477	9.965579e-01	1.739043e+00
0.480	9.671512e-01	1.754850e+00
0.483	9.381813e-01	1.772253e+00
0.486	9.097645e-01	1.791153e+00
0.489	8.819998e-01	1.811440e+00
0.492	8.549686e-01	1.833003e+00
0.495	8.287358e-01	1.855729e+00
0.498	8.033504e-01	1.879505e+00
0.501	7.788472e-01	1.904220e+00
0.504	7.552480e-01	1.929768e+00
0.507	7.325631e-01	1.956048e+00
0.510	7.107931e-01	1.982965e+00
0.513	6.899300e-01	2.010430e+00
0.516	6.699593e-01	2.038363e+00
0.519	6.508610e-01	2.066689e+00
0.522	6.326106e-01	2.095341e+00
0.525	6.151809e-01	2.124259e+00
0.528	5.985421e-01	2.153389e+00
0.531	5.826630e-01	2.182684e+00
0.534	5.675119e-01	2.212101e+00
0.537	5.530565e-01	2.241602e+00
0.540	5.392649e-01	2.271156e+00
0.543	5.261055e-01	2.300734e+00
0.546	5.135476e-01	2.330311e+00
0.549	5.015615e-01	2.359867e+00
0.552	4.901183e-01	2.389382e+00
0.555	4.791905e-01	2.418842e+00
0.558	4.687518e-01	2.448232e+00
0.561	4.587770e-01	2.477543e+00
0.564	4.492422e-01	2.506764e+00
0.567	4.401248e-01	2.535888e+00
0.570	4.314034e-01	2.564909e+00
0.573	4.230576e-01	2.593820e+00
0.576	4.150683e-01	2.622618e+00
0.579	4.074175e-01	2.651300e+00
0.582	4.000881e-01	2.679863e+00
0.585	3.930639e-01	2.708306e+00
0.588	3.863300e-01	2.736627e+00
0.591	3.798719e-01	2.764825e+00
0.594	3.736763e-01	2.792901e+00
0.597	3.677304e-01	2.820854e+00
0.600	3.620224e-01	2.848685e+00
0.603	3.565410e-01	2.876395e+00
0.606	3.512757e-01	2.903985e+00
0.609	3.462163e-01	2.931455e+00
0.612	3.413536e-01	2.958808e+00
0.615	3.366785e-01	2.986044e+00
0.618	3.321828e-01	3.013165e+00
0.621	3.278585e-01	3.040173e+00
0.624	3.236981e-01	3.067070e+00
0.627	3.196945e-01	3.093857e+00
0.630	3.158412e-01	3.120536e+00
0.633	3.121317e-01	3.147109e+00
0.636	3.085601e-01	3.173578e+00
0.639	3.051207e-01	3.199945e+00
0.642	3.018082e-01	3.226212e+00
0.645	2.986175e-01	3.252380e+00
0.648	2.955438e-01	3.278451e+00
0.651	2.925825e-01	3.304428e+00
0.654	2.897293e-01	3.330312e+00
0.657	2.869801e-01	3.356105e+00
0.660	2.843309e-01	3.381809e+00
0.663	2.817781e-01	3.407425e+00
0.666	2.793181e-01	3.432956e+00
0.669	2.769476e-01	3.458403e+00
0.672	2.746634e-01	3.483768e+00
0.675	2.724624e-01	3.509052e+00
0.678	2.703417e-01	3.534257e+00
0.681	2.682986e-01	3.559385e+00
0.684	2.663305e-01	3.584437e+00
0.687	2.644348e-01	3.609415e+00
0.690	2.626091e-01	3.634321e+00
0.693	2.608512e-01	3.659155e+00
0.696	2.591589e-01	3.683919e+00
0.699	2.575301e-01	3.708615e+00
0.702	2.559627e-01	3.733244e+00
0.705	2.544549e-01	3.757808e+00
0.708	2.530049e-01	3.782307e+00
0.711	2.516110e-01	3.806743e+00
0.714	2.502713e-01	3.831117e+00
0.717	2.489844e-01	3.855431e+00
0.720	2.477488e-01	3.879685e+00
0.723	2.465628e-01	3.903881e+00
0.726	2.454253e-01	3.928021e+00
0.729	2.443347e-01	3.952104e+00
0.732	2.432898e-01	3.976132e+00
0.735	2.422894e-01	4.000107e+00
0.738	2.413322e-01	4.024029e+00
0.741	2.404171e-01	4.047900e+00
0.744	2.395431e-01	4.071719e+00
0.747	2.387090e-01	4.095489e+00
0.750	2.379139e-01	4.119210e+00
0.753	2.371568e-01	4.142883e+00
0.756	2.364366e-01	4.166509e+00
0.759	2.357526e-01	4.190090e+00
0.762	2.351039e-01	4.213624e+00
0.765	2.344896e-01	4.237115e+00
0.768	2.339090e-01	4.260562e+00
0.771	2.333612e-01	4.283966e+00
0.774	2.328454e-01	4.307328e+00
0.777	2.323611e-01	4.330649e+00
0.780	2.319075e-01	4.353929e+00
0.783	2.314839e-01	4.377170e+00
0.786	2.310897e-01	4.400371e+00
0.789	2.307243e-01	4.423534e+00
0.792	2.303870e-01	4.446660e+00
0.795	2.300773e-01	4.469748e+00
0.798	2.297947e-01	4.492800e+00
0.801	2.295386e-01	4.515816e+00
0.804	2.293085e-01	4.538798e+00
0.807	2.291039e-01	4.561744e+00
0.810	2.289243e-01	4.584657e+00
0.813	2.287693e-01	4.607536e+00
0.816	2.286383e-01	4.630383e+00
0.819	2.285311e-01	4.653197e+00
0.822	2.284470e-01	4.675980e+00
0.825	2.283859e-01	4.698732e+00
0.828	2.283472e-01	4.721452e+00
0.831	2.283306e-01	4.744143e+00
0.834	2.283357e-01	4.766804e+00
0.837	2.283623e-01	4.789436e+00
0.840	2.284098e-01	4.812040e+00
0.843	2.284781e-01	4.834615e+00
0.846	2.285668e-01	4.857162e+00
0.849	2.286755e-01	4.879682e+00
0.852	2.288041e-01	4.902175e+00
0.855	2.289522e-01	4.924642e+00
0.858	2.291196e-01	4.947082e+00
0.861	2.293060e-01	4.969497e+00
0.864	2.295110e-01	4.991887e+00
0.867	2.297346e-01	5.014252e+00
0.870	2.299764e-01	5.036592e+00
0.873	2.302363e-01	5.058908e+00
0.876	2.305139e-01	5.081201e+00
0.879	2.308091e-01	5.103470e+00
0.882	2.311217e-01	5.125716e+00
0.885	2.314515e-01	5.147940e+00
0.888	2.317983e-01	5.170141e+00
0.891	2.321619e-01	5.192320e+00
0.894	2.325421e-01	5.214477e+00
0.897	2.329388e-01	5.236613e+00
0.900	2.333518e-01	5.258728e+00
0.903	2.337810e-01	5.280823e+00
0.906	2.342261e-01	5.302896e+00
0.909	2.346871e-01	5.324950e+00
0.912	2.351637e-01	5.346983e+00
0.915	2.356560e-01	5.368997e+00
0.918	2.361636e-01	5.390992e+00
0.921	2.366866e-01	5.412967e+00
0.924	2.372248e-01	5.434924e+00
0.927	2.377781e-01	5.456862e+00
0.930	2.383463e-01	5.478782e+00
0.933	2.389294e-01	5.500684e+00
0.936	2.395273e-01	5.522567e+00
0.939	2.401398e-01	5.544433e+00
0.942	2.407670e-01	5.566282e+00
0.945	2.414086e-01	5.588114e+00
0.948	2.420646e-01	5.609928e+00
0.951	2.427350e-01	5.631726e+00
0.954	2.434196e-01	5.653507e+00
0.957	2.441184e-01	5.675272e+00
0.960	2.448313e-01	5.697021e+00
0.963	2.455583e-01	5.718754e+00
0.966	2.462993e-01	5.740471e+00
0.969	2.470543e-01	5.762172e+00
0.972	2.478231e-01	5.783858e+00
0.975	2.486058e-01	5.805529e+00
0.978	2.494022e-01	5.827184e+00
0.981	2.502125e-01	5.848825e+00
0.984	2.510364e-01	5.870451e+00
0.987	2.518740e-01	5.892062e+00
0.990	2.527253e-01	5.913659e+00
0.993	2.535902e-01	5.935242e+00
0.996	2.544687e-01	5.956810e+00
0.999	2.553607e-01	5.978364e+00
1.002	2.562663e-01	5.999905e+00
1.005	2.571855e-01	6.021431e+00
1.008	2.581181e-01	6.042944e+00
1.011	2.590642e-01	6.064443e+00
1.014	2.600239e-01	6.085929e+00
1.017	2.609970e-01	6.107402e+00
1.020	2.619836e-01	6.128861e+00
1.023	2.629836e-01	6.150308e+00
1.026	2.639971e-01	6.171741e+00
1.029	2.650242e-01	6.193161e+00
1.032	2.660646e-01	6.214569e+00
1.035	2.671186e-01	6.235964e+00
1.038	2.681861e-01	6.257346e+00
1.041	2.692670e-01	6.278715e+00
1.044	2.703615e-01	6.300072e+00
1.047	2.714695e-01	6.321417e+00
1.050	2.725910e-01	6.342749e+00
1.053	2.737261e-01	6.364068e+00
1.056	2.748748e-01	6.385376e+00
1.059	2.760371e-01	6.406671e+00
1.062	2.772130e-01	6.427954e+00
1.065	2.784025e-01	6.449225e+00
1.068	2.796057e-01	6.470483e+00
1.071	2.808226e-01	6.491730e+00
1.074	2.820533e-01	6.512965e+00
1.077	2.832977e-01	6.534187e+00
1.080	2.845558e-01	6.555397e+00
1.083	2.858278e-01	6.576596e+00
1.086	2.871137e-01	6.597782e+00
1.089	2.884134e-01	6.618957e+00
1.092	2.897270e-01	6.640119e+00
1.095	2.910546e-01	6.661269e+00
1.098	2.923962e-01	6.682408e+00
1.101	2.937518e-01	6.703534e+00
1.104	2.951214e-01	6.724648e+00
1.107	2.965052e-01	6.745750e+00
1.110	2.979030e-01	6.766840e+00
1.113	2.993151e-01	6.787917e+00
1.116	3.007413e-01	6.808983e+00
1.119	3.021818e-01	6.830036e+00
1.122	3.036366e-01	6.851077e+00
1.125	3.051056e-01	6.872105e+00
1.128	3.065890e-01	6.893121e+00
1.131	3.080868e-01	6.914124e+00
1.134	3.095990e-01	6.935115e+00
1.137	3.111257e-01	6.956093e+00
1.140	3.126668e-01	6.977059e+00
1.143	3.142224e-01	6.998011e+00
1.146	3.157926e-01	7.018950e+00
1.149	3.173773e-01	7.039877e+00
1.152	3.189766e-01	7.060790e+00
1.155	3.205905e-01	7.081690e+00
1.158	3.222190e-01	7.102576e+00
1.161	3.238622e-01	7.123449e+00
1.164	3.255201e-01	7.144308e+00
1.167	3.271926e-01	7.165153e+00
1.170	3.288798e-01	7.185984e+00
1.173	3.305816e-01	7.206801e+00
1.176	3.322982e-01	7.227604e+00
1.179	3.340294e-01	7.248392e+00
1.182	3.357753e-01	7.269166e+00
1.185	3.375359e-01	7.289924e+00
1.188	3.393112e-01	7.310668e+00
1.191	3.411010e-01	7.331397e+00
1.194	3.429055e-01	7.352110e+00
1.197	3.447246e-01	7.372807e+00
1.200	3.465582e-01	7.393489e+00
