Material: diel_mie / Au_RakicLDHD
Optical constants. A. D. RakiÄ‡, A. B. DjuriÅ¡ic, J. M. Elazar, M. L. Majewski. Optical properties of metallic films for vertical-cavity optoelectronic devices. Appl. Opt. 37, 5271-5283 (1998)
Comments: Fit of experimental data from several sources to Lorentz-Drude (LD) model
wavelength (um)	n	k
270.0	1.306302e+00	1.685155e+00
273.0	1.334116e+00	1.693196e+00
276.0	1.360965e+00	1.698878e+00
279.0	1.386642e+00	1.702328e+00
282.0	1.410957e+00	1.703693e+00
285.0	1.433739e+00	1.703142e+00
288.0	1.454836e+00	1.700861e+00
291.0	1.474119e+00	1.697047e+00
294.0	1.491486e+00	1.691912e+00
297.0	1.506859e+00	1.685671e+00
300.0	1.520185e+00	1.678545e+00
303.0	1.531437e+00	1.670754e+00
306.0	1.540613e+00	1.662515e+00
309.0	1.547733e+00	1.654041e+00
312.0	1.552839e+00	1.645534e+00
315.0	1.555995e+00	1.637189e+00
318.0	1.557280e+00	1.629187e+00
321.0	1.556791e+00	1.621699e+00
324.0	1.554639e+00	1.614880e+00
327.0	1.550950e+00	1.608871e+00
330.0	1.545860e+00	1.603797e+00
333.0	1.539517e+00	1.599771e+00
336.0	1.532077e+00	1.596884e+00
339.0	1.523707e+00	1.595213e+00
342.0	1.514578e+00	1.594818e+00
345.0	1.504871e+00	1.595737e+00
348.0	1.494768e+00	1.597990e+00
351.0	1.484458e+00	1.601574e+00
354.0	1.474129e+00	1.606463e+00
357.0	1.463968e+00	1.612607e+00
360.0	1.454160e+00	1.619930e+00
363.0	1.444881e+00	1.628331e+00
366.0	1.436295e+00	1.637680e+00
369.0	1.428551e+00	1.647819e+00
372.0	1.421777e+00	1.658567e+00
375.0	1.416075e+00	1.669715e+00
378.0	1.411514e+00	1.681036e+00
381.0	1.408126e+00	1.692285e+00
384.0	1.405904e+00	1.703204e+00
387.0	1.404792e+00	1.713534e+00
390.0	1.404689e+00	1.723019e+00
393.0	1.405443e+00	1.731417e+00
396.0	1.406855e+00	1.738512e+00
399.0	1.408682e+00	1.744119e+00
402.0	1.410645e+00	1.748102e+00
405.0	1.412435e+00	1.750376e+00
408.0	1.413727e+00	1.750913e+00
411.0	1.414192e+00	1.749752e+00
414.0	1.413510e+00	1.746992e+00
417.0	1.411385e+00	1.742791e+00
420.0	1.407556e+00	1.737361e+00
423.0	1.401806e+00	1.730957e+00
426.0	1.393970e+00	1.723865e+00
429.0	1.383940e+00	1.716390e+00
432.0	1.371664e+00	1.708847e+00
435.0	1.357142e+00	1.701545e+00
438.0	1.340426e+00	1.694779e+00
441.0	1.321609e+00	1.688824e+00
444.0	1.300822e+00	1.683929e+00
447.0	1.278225e+00	1.680309e+00
450.0	1.254001e+00	1.678150e+00
453.0	1.228347e+00	1.677601e+00
456.0	1.201472e+00	1.678781e+00
459.0	1.173587e+00	1.681774e+00
462.0	1.144905e+00	1.686635e+00
465.0	1.115635e+00	1.693392e+00
468.0	1.085979e+00	1.702045e+00
471.0	1.056130e+00	1.712570e+00
474.0	1.026268e+00	1.724924e+00
477.0	9.965579e-01	1.739043e+00
480.0	9.671512e-01	1.754850e+00
483.0	9.381813e-01	1.772253e+00
486.0	9.097645e-01	1.791153e+00
489.0	8.819998e-01	1.811440e+00
492.0	8.549686e-01	1.833003e+00
495.0	8.287358e-01	1.855729e+00
498.0	8.033504e-01	1.879505e+00
501.0	7.788472e-01	1.904220e+00
504.0	7.552480e-01	1.929768e+00
507.0	7.325631e-01	1.956048e+00
510.0	7.107931e-01	1.982965e+00
513.0	6.899300e-01	2.010430e+00
516.0	6.699593e-01	2.038363e+00
519.0	6.508610e-01	2.066689e+00
522.0	6.326106e-01	2.095341e+00
525.0	6.151809e-01	2.124259e+00
528.0	5.985421e-01	2.153389e+00
531.0	5.826630e-01	2.182684e+00
534.0	5.675119e-01	2.212101e+00
537.0	5.530565e-01	2.241602e+00
540.0	5.392649e-01	2.271156e+00
543.0	5.261055e-01	2.300734e+00
546.0	5.135476e-01	2.330311e+00
549.0	5.015615e-01	2.359867e+00
552.0	4.901183e-01	2.389382e+00
555.0	4.791905e-01	2.418842e+00
558.0	4.687518e-01	2.448232e+00
561.0	4.587770e-01	2.477543e+00
564.0	4.492422e-01	2.506764e+00
567.0	4.401248e-01	2.535888e+00
570.0	4.314034e-01	2.564909e+00
573.0	4.230576e-01	2.593820e+00
576.0	4.150683e-01	2.622618e+00
579.0	4.074175e-01	2.651300e+00
582.0	4.000881e-01	2.679863e+00
585.0	3.930639e-01	2.708306e+00
588.0	3.863300e-01	2.736627e+00
591.0	3.798719e-01	2.764825e+00
594.0	3.736763e-01	2.792901e+00
597.0	3.677304e-01	2.820854e+00
600.0	3.620224e-01	2.848685e+00
603.0	3.565410e-01	2.876395e+00
606.0	3.512757e-01	2.903985e+00
609.0	3.462163e-01	2.931455e+00
612.0	3.413536e-01	2.958808e+00
615.0	3.366785e-01	2.986044e+00
618.0	3.321828e-01	3.013165e+00
621.0	3.278585e-01	3.040173e+00
624.0	3.236981e-01	3.067070e+00
627.0	3.196945e-01	3.093857e+00
630.0	3.158412e-01	3.120536e+00
633.0	3.121317e-01	3.147109e+00
636.0	3.085601e-01	3.173578e+00
639.0	3.051207e-01	3.199945e+00
642.0	3.018082e-01	3.226212e+00
645.0	2.986175e-01	3.252380e+00
648.0	2.955438e-01	3.278451e+00
651.0	2.925825e-01	3.304428e+00
654.0	2.897293e-01	3.330312e+00
657.0	2.869801e-01	3.356105e+00
660.0	2.843309e-01	3.381809e+00
663.0	2.817781e-01	3.407425e+00
666.0	2.793181e-01	3.432956e+00
669.0	2.769476e-01	3.458403e+00
672.0	2.746634e-01	3.483768e+00
675.0	2.724624e-01	3.509052e+00
678.0	2.703417e-01	3.534257e+00
681.0	2.682986e-01	3.559385e+00
684.0	2.663305e-01	3.584437e+00
687.0	2.644348e-01	3.609415e+00
690.0	2.626091e-01	3.634321e+00
693.0	2.608512e-01	3.659155e+00
696.0	2.591589e-01	3.683919e+00
699.0	2.575301e-01	3.708615e+00
702.0	2.559627e-01	3.733244e+00
705.0	2.544549e-01	3.757808e+00
708.0	2.530049e-01	3.782307e+00
711.0	2.516110e-01	3.806743e+00
714.0	2.502713e-01	3.831117e+00
717.0	2.489844e-01	3.855431e+00
720.0	2.477488e-01	3.879685e+00
723.0	2.465628e-01	3.903881e+00
726.0	2.454253e-01	3.928021e+00
729.0	2.443347e-01	3.952104e+00
732.0	2.432898e-01	3.976132e+00
735.0	2.422894e-01	4.000107e+00
738.0	2.413322e-01	4.024029e+00
741.0	2.404171e-01	4.047900e+00
744.0	2.395431e-01	4.071719e+00
747.0	2.387090e-01	4.095489e+00
750.0	2.379139e-01	4.119210e+00
753.0	2.371568e-01	4.142883e+00
756.0	2.364366e-01	4.166509e+00
759.0	2.357526e-01	4.190090e+00
762.0	2.351039e-01	4.213624e+00
765.0	2.344896e-01	4.237115e+00
768.0	2.339090e-01	4.260562e+00
771.0	2.333612e-01	4.283966e+00
774.0	2.328454e-01	4.307328e+00
777.0	2.323611e-01	4.330649e+00
780.0	2.319075e-01	4.353929e+00
783.0	2.314839e-01	4.377170e+00
786.0	2.310897e-01	4.400371e+00
789.0	2.307243e-01	4.423534e+00
792.0	2.303870e-01	4.446660e+00
795.0	2.300773e-01	4.469748e+00
798.0	2.297947e-01	4.492800e+00
801.0	2.295386e-01	4.515816e+00
804.0	2.293085e-01	4.538798e+00
807.0	2.291039e-01	4.561744e+00
810.0	2.289243e-01	4.584657e+00
813.0	2.287693e-01	4.607536e+00
816.0	2.286383e-01	4.630383e+00
819.0	2.285311e-01	4.653197e+00
822.0	2.284470e-01	4.675980e+00
825.0	2.283859e-01	4.698732e+00
828.0	2.283472e-01	4.721452e+00
831.0	2.283306e-01	4.744143e+00
834.0	2.283357e-01	4.766804e+00
837.0	2.283623e-01	4.789436e+00
840.0	2.284098e-01	4.812040e+00
843.0	2.284781e-01	4.834615e+00
846.0	2.285668e-01	4.857162e+00
849.0	2.286755e-01	4.879682e+00
852.0	2.288041e-01	4.902175e+00
855.0	2.289522e-01	4.924642e+00
858.0	2.291196e-01	4.947082e+00
861.0	2.293060e-01	4.969497e+00
864.0	2.295110e-01	4.991887e+00
867.0	2.297346e-01	5.014252e+00
870.0	2.299764e-01	5.036592e+00
873.0	2.302363e-01	5.058908e+00
876.0	2.305139e-01	5.081201e+00
879.0	2.308091e-01	5.103470e+00
882.0	2.311217e-01	5.125716e+00
885.0	2.314515e-01	5.147940e+00
888.0	2.317983e-01	5.170141e+00
891.0	2.321619e-01	5.192320e+00
894.0	2.325421e-01	5.214477e+00
897.0	2.329388e-01	5.236613e+00
900.0	2.333518e-01	5.258728e+00
903.0	2.337810e-01	5.280823e+00
906.0	2.342261e-01	5.302896e+00
909.0	2.346871e-01	5.324950e+00
912.0	2.351637e-01	5.346983e+00
915.0	2.356560e-01	5.368997e+00
918.0	2.361636e-01	5.390992e+00
921.0	2.366866e-01	5.412967e+00
924.0	2.372248e-01	5.434924e+00
927.0	2.377781e-01	5.456862e+00
930.0	2.383463e-01	5.478782e+00
933.0	2.389294e-01	5.500684e+00
936.0	2.395273e-01	5.522567e+00
939.0	2.401398e-01	5.544433e+00
942.0	2.407670e-01	5.566282e+00
945.0	2.414086e-01	5.588114e+00
948.0	2.420646e-01	5.609928e+00
951.0	2.427350e-01	5.631726e+00
954.0	2.434196e-01	5.653507e+00
957.0	2.441184e-01	5.675272e+00
960.0	2.448313e-01	5.697021e+00
963.0	2.455583e-01	5.718754e+00
966.0	2.462993e-01	5.740471e+00
969.0	2.470543e-01	5.762172e+00
972.0	2.478231e-01	5.783858e+00
975.0	2.486058e-01	5.805529e+00
978.0	2.494022e-01	5.827184e+00
981.0	2.502125e-01	5.848825e+00
984.0	2.510364e-01	5.870451e+00
987.0	2.518740e-01	5.892062e+00
990.0	2.527253e-01	5.913659e+00
993.0	2.535902e-01	5.935242e+00
996.0	2.544687e-01	5.956810e+00
999.0	2.553607e-01	5.978364e+00
1002.0	2.562663e-01	5.999905e+00
1005.0	2.571855e-01	6.021431e+00
1008.0	2.581181e-01	6.042944e+00
1011.0	2.590642e-01	6.064443e+00
1014.0	2.600239e-01	6.085929e+00
1017.0	2.609970e-01	6.107402e+00
1020.0	2.619836e-01	6.128861e+00
1023.0	2.629836e-01	6.150308e+00
1026.0	2.639971e-01	6.171741e+00
1029.0	2.650242e-01	6.193161e+00
1032.0	2.660646e-01	6.214569e+00
1035.0	2.671186e-01	6.235964e+00
1038.0	2.681861e-01	6.257346e+00
1041.0	2.692670e-01	6.278715e+00
1044.0	2.703615e-01	6.300072e+00
1047.0	2.714695e-01	6.321417e+00
1050.0	2.725910e-01	6.342749e+00
1053.0	2.737261e-01	6.364068e+00
1056.0	2.748748e-01	6.385376e+00
1059.0	2.760371e-01	6.406671e+00
1062.0	2.772130e-01	6.427954e+00
1065.0	2.784025e-01	6.449225e+00
1068.0	2.796057e-01	6.470483e+00
1071.0	2.808226e-01	6.491730e+00
1074.0	2.820533e-01	6.512965e+00
1077.0	2.832977e-01	6.534187e+00
1080.0	2.845558e-01	6.555397e+00
1083.0	2.858278e-01	6.576596e+00
1086.0	2.871137e-01	6.597782e+00
1089.0	2.884134e-01	6.618957e+00
1092.0	2.897270e-01	6.640119e+00
1095.0	2.910546e-01	6.661269e+00
1098.0	2.923962e-01	6.682408e+00
1101.0	2.937518e-01	6.703534e+00
1104.0	2.951214e-01	6.724648e+00
1107.0	2.965052e-01	6.745750e+00
1110.0	2.979030e-01	6.766840e+00
1113.0	2.993151e-01	6.787917e+00
1116.0	3.007413e-01	6.808983e+00
1119.0	3.021818e-01	6.830036e+00
1122.0	3.036366e-01	6.851077e+00
1125.0	3.051056e-01	6.872105e+00
1128.0	3.065890e-01	6.893121e+00
1131.0	3.080868e-01	6.914124e+00
1134.0	3.095990e-01	6.935115e+00
1137.0	3.111257e-01	6.956093e+00
1140.0	3.126668e-01	6.977059e+00
1143.0	3.142224e-01	6.998011e+00
1146.0	3.157926e-01	7.018950e+00
1149.0	3.173773e-01	7.039877e+00
1152.0	3.189766e-01	7.060790e+00
1155.0	3.205905e-01	7.081690e+00
1158.0	3.222190e-01	7.102576e+00
1161.0	3.238622e-01	7.123449e+00
1164.0	3.255201e-01	7.144308e+00
1167.0	3.271926e-01	7.165153e+00
1170.0	3.288798e-01	7.185984e+00
1173.0	3.305816e-01	7.206801e+00
1176.0	3.322982e-01	7.227604e+00
1179.0	3.340294e-01	7.248392e+00
1182.0	3.357753e-01	7.269166e+00
1185.0	3.375359e-01	7.289924e+00
1188.0	3.393112e-01	7.310668e+00
1191.0	3.411010e-01	7.331397e+00
1194.0	3.429055e-01	7.352110e+00
1197.0	3.447246e-01	7.372807e+00
1200.0	3.465582e-01	7.393489e+00
